<?xml version="1.0" encoding="UTF-8"?>

<!-- generated on 2024-02-22 14:04:09 by Eclipse SUMO duarouter Version 1.19.0
<configuration xmlns:xsi="http://www.w3.org/2001/XMLSchema-instance" xsi:noNamespaceSchemaLocation="http://sumo.dlr.de/xsd/duarouterConfiguration.xsd">

    <input>
        <net-file value="../02_scenario/rand_grid.net.xml"/>
        <additional-files value="../02_scenario/parking_areas.add.xml"/>
        <route-files value="../02_scenario/activities_with_parking.trips.xml"/>
    </input>

    <output>
        <output-file value="../02_scenario/activities_with_parking.rou.xml"/>
    </output>

    <report>
        <ignore-errors value="true"/>
    </report>

</configuration>
-->

<routes xmlns:xsi="http://www.w3.org/2001/XMLSchema-instance" xsi:noNamespaceSchemaLocation="http://sumo.dlr.de/xsd/routes_file.xsd"/>
