<additional xmlns:xsi="http://www.w3.org/2001/XMLSchema-instance" xsi:noNamespaceSchemaLocation="http://sumo.dlr.de/xsd/additional_file.xsd">

    <rerouter id="pa-109" edges="-109">
        <interval begin="0.0" end="950400">
             
            <parkingAreaReroute id="pa-109" visible="true" /> 
            <parkingAreaReroute id="pa23" visible="true" /> 
            <parkingAreaReroute id="pa-11" visible="true" /> 
            <parkingAreaReroute id="pa-outside2" visible="true" /> 
            <parkingAreaReroute id="pa3" visible="true" /> 
            <parkingAreaReroute id="pa37" visible="true" /> 
            <parkingAreaReroute id="pa-outside1" visible="true" /> 
            <parkingAreaReroute id="pa31" visible="true" /> 
            <parkingAreaReroute id="pa15" visible="true" /> 
            <parkingAreaReroute id="pa5" visible="true" /> 
            <parkingAreaReroute id="pa64" visible="true" /> 
        </interval>
    </rerouter>

    <rerouter id="pa-11" edges="-11">
        <interval begin="0.0" end="950400">
             
            <parkingAreaReroute id="pa-11" visible="true" /> 
            <parkingAreaReroute id="pa3" visible="true" /> 
            <parkingAreaReroute id="pa15" visible="true" /> 
            <parkingAreaReroute id="pa5" visible="true" /> 
            <parkingAreaReroute id="pa27" visible="true" /> 
            <parkingAreaReroute id="pa-71" visible="true" /> 
            <parkingAreaReroute id="pa-144" visible="true" /> 
            <parkingAreaReroute id="pa-industrial2" visible="true" /> 
            <parkingAreaReroute id="pa-123" visible="true" /> 
            <parkingAreaReroute id="pa45" visible="true" /> 
            <parkingAreaReroute id="pa55" visible="true" /> 
        </interval>
    </rerouter>

    <rerouter id="pa-120" edges="-120">
        <interval begin="0.0" end="950400">
             
            <parkingAreaReroute id="pa-120" visible="true" /> 
            <parkingAreaReroute id="pa-residential_west" visible="true" /> 
            <parkingAreaReroute id="pa162" visible="true" /> 
            <parkingAreaReroute id="pa-64" visible="true" /> 
            <parkingAreaReroute id="pa-75" visible="true" /> 
            <parkingAreaReroute id="pa60" visible="true" /> 
            <parkingAreaReroute id="pa-31" visible="true" /> 
            <parkingAreaReroute id="pa58" visible="true" /> 
            <parkingAreaReroute id="pa92" visible="true" /> 
            <parkingAreaReroute id="pa79" visible="true" /> 
            <parkingAreaReroute id="pa-60" visible="true" /> 
        </interval>
    </rerouter>

    <rerouter id="pa-123" edges="-123">
        <interval begin="0.0" end="950400">
             
            <parkingAreaReroute id="pa-123" visible="true" /> 
            <parkingAreaReroute id="pa-central" visible="true" /> 
            <parkingAreaReroute id="pa131" visible="true" /> 
            <parkingAreaReroute id="pa-120" visible="true" /> 
            <parkingAreaReroute id="pa-residential_south" visible="true" /> 
            <parkingAreaReroute id="pa-109" visible="true" /> 
            <parkingAreaReroute id="pa23" visible="true" /> 
            <parkingAreaReroute id="pa-11" visible="true" /> 
            <parkingAreaReroute id="pa-outside2" visible="true" /> 
            <parkingAreaReroute id="pa-industrial1" visible="true" /> 
            <parkingAreaReroute id="pa144" visible="true" /> 
        </interval>
    </rerouter>

    <rerouter id="pa-131" edges="-131">
        <interval begin="0.0" end="950400">
             
            <parkingAreaReroute id="pa-131" visible="true" /> 
            <parkingAreaReroute id="pa-120" visible="true" /> 
            <parkingAreaReroute id="pa-residential_south" visible="true" /> 
            <parkingAreaReroute id="pa-109" visible="true" /> 
            <parkingAreaReroute id="pa123" visible="true" /> 
            <parkingAreaReroute id="pa23" visible="true" /> 
            <parkingAreaReroute id="pa-11" visible="true" /> 
            <parkingAreaReroute id="pa-outside2" visible="true" /> 
            <parkingAreaReroute id="pa-15" visible="true" /> 
            <parkingAreaReroute id="pa-144" visible="true" /> 
            <parkingAreaReroute id="pa-industrial2" visible="true" /> 
        </interval>
    </rerouter>

    <rerouter id="pa-144" edges="-144">
        <interval begin="0.0" end="950400">
             
            <parkingAreaReroute id="pa-144" visible="true" /> 
            <parkingAreaReroute id="pa148" visible="true" /> 
            <parkingAreaReroute id="pa152" visible="true" /> 
            <parkingAreaReroute id="pa-131" visible="true" /> 
            <parkingAreaReroute id="pa-residential_east" visible="true" /> 
            <parkingAreaReroute id="pa-164" visible="true" /> 
            <parkingAreaReroute id="pa172" visible="true" /> 
            <parkingAreaReroute id="pa164" visible="true" /> 
            <parkingAreaReroute id="pa-162" visible="true" /> 
            <parkingAreaReroute id="pa-120" visible="true" /> 
            <parkingAreaReroute id="pa-residential_south" visible="true" /> 
        </interval>
    </rerouter>

    <rerouter id="pa-148" edges="-148">
        <interval begin="0.0" end="950400">
             
            <parkingAreaReroute id="pa-148" visible="true" /> 
            <parkingAreaReroute id="pa152" visible="true" /> 
            <parkingAreaReroute id="pa-131" visible="true" /> 
            <parkingAreaReroute id="pa-residential_east" visible="true" /> 
            <parkingAreaReroute id="pa-industrial1" visible="true" /> 
            <parkingAreaReroute id="pa144" visible="true" /> 
            <parkingAreaReroute id="pa-164" visible="true" /> 
            <parkingAreaReroute id="pa-162" visible="true" /> 
            <parkingAreaReroute id="pa-123" visible="true" /> 
            <parkingAreaReroute id="pa-15" visible="true" /> 
            <parkingAreaReroute id="pa-120" visible="true" /> 
        </interval>
    </rerouter>

    <rerouter id="pa-15" edges="-15">
        <interval begin="0.0" end="950400">
             
            <parkingAreaReroute id="pa-15" visible="true" /> 
            <parkingAreaReroute id="pa11" visible="true" /> 
            <parkingAreaReroute id="pa5" visible="true" /> 
            <parkingAreaReroute id="pa3" visible="true" /> 
            <parkingAreaReroute id="pa109" visible="true" /> 
            <parkingAreaReroute id="pa23" visible="true" /> 
            <parkingAreaReroute id="pa-120" visible="true" /> 
            <parkingAreaReroute id="pa-residential_south" visible="true" /> 
            <parkingAreaReroute id="pa123" visible="true" /> 
            <parkingAreaReroute id="pa-central" visible="true" /> 
            <parkingAreaReroute id="pa131" visible="true" /> 
        </interval>
    </rerouter>

    <rerouter id="pa-152" edges="-152">
        <interval begin="0.0" end="950400">
             
            <parkingAreaReroute id="pa-152" visible="true" /> 
            <parkingAreaReroute id="pa-131" visible="true" /> 
            <parkingAreaReroute id="pa-residential_east" visible="true" /> 
            <parkingAreaReroute id="pa148" visible="true" /> 
            <parkingAreaReroute id="pa-industrial1" visible="true" /> 
            <parkingAreaReroute id="pa144" visible="true" /> 
            <parkingAreaReroute id="pa172" visible="true" /> 
            <parkingAreaReroute id="pa164" visible="true" /> 
            <parkingAreaReroute id="pa-123" visible="true" /> 
            <parkingAreaReroute id="pa-15" visible="true" /> 
            <parkingAreaReroute id="pa-120" visible="true" /> 
        </interval>
    </rerouter>

    <rerouter id="pa-162" edges="-162">
        <interval begin="0.0" end="950400">
             
            <parkingAreaReroute id="pa-162" visible="true" /> 
            <parkingAreaReroute id="pa120" visible="true" /> 
            <parkingAreaReroute id="pa-75" visible="true" /> 
            <parkingAreaReroute id="pa-64" visible="true" /> 
            <parkingAreaReroute id="pa60" visible="true" /> 
            <parkingAreaReroute id="pa-31" visible="true" /> 
            <parkingAreaReroute id="pa58" visible="true" /> 
            <parkingAreaReroute id="pa92" visible="true" /> 
            <parkingAreaReroute id="pa79" visible="true" /> 
            <parkingAreaReroute id="pa-60" visible="true" /> 
            <parkingAreaReroute id="pa75" visible="true" /> 
        </interval>
    </rerouter>

    <rerouter id="pa-164" edges="-164">
        <interval begin="0.0" end="950400">
             
            <parkingAreaReroute id="pa-164" visible="true" /> 
            <parkingAreaReroute id="pa-148" visible="true" /> 
            <parkingAreaReroute id="pa172" visible="true" /> 
            <parkingAreaReroute id="pa152" visible="true" /> 
            <parkingAreaReroute id="pa-131" visible="true" /> 
            <parkingAreaReroute id="pa-residential_east" visible="true" /> 
            <parkingAreaReroute id="pa-industrial1" visible="true" /> 
            <parkingAreaReroute id="pa144" visible="true" /> 
            <parkingAreaReroute id="pa184" visible="true" /> 
            <parkingAreaReroute id="pa190" visible="true" /> 
            <parkingAreaReroute id="pa196" visible="true" /> 
        </interval>
    </rerouter>

    <rerouter id="pa-172" edges="-172">
        <interval begin="0.0" end="950400">
             
            <parkingAreaReroute id="pa-172" visible="true" /> 
            <parkingAreaReroute id="pa164" visible="true" /> 
            <parkingAreaReroute id="pa-148" visible="true" /> 
            <parkingAreaReroute id="pa152" visible="true" /> 
            <parkingAreaReroute id="pa-131" visible="true" /> 
            <parkingAreaReroute id="pa-residential_east" visible="true" /> 
            <parkingAreaReroute id="pa-industrial1" visible="true" /> 
            <parkingAreaReroute id="pa144" visible="true" /> 
            <parkingAreaReroute id="pa-162" visible="true" /> 
            <parkingAreaReroute id="pa-152" visible="true" /> 
            <parkingAreaReroute id="pa-164" visible="true" /> 
        </interval>
    </rerouter>

    <rerouter id="pa-184" edges="-184">
        <interval begin="0.0" end="950400">
             
            <parkingAreaReroute id="pa-184" visible="true" /> 
            <parkingAreaReroute id="pa196" visible="true" /> 
            <parkingAreaReroute id="pa-172" visible="true" /> 
            <parkingAreaReroute id="pa190" visible="true" /> 
            <parkingAreaReroute id="pa164" visible="true" /> 
            <parkingAreaReroute id="pa-148" visible="true" /> 
            <parkingAreaReroute id="pa-196" visible="true" /> 
            <parkingAreaReroute id="pa152" visible="true" /> 
            <parkingAreaReroute id="pa229" visible="true" /> 
            <parkingAreaReroute id="pa219" visible="true" /> 
            <parkingAreaReroute id="pa-131" visible="true" /> 
        </interval>
    </rerouter>

    <rerouter id="pa-190" edges="-190">
        <interval begin="0.0" end="950400">
             
            <parkingAreaReroute id="pa-190" visible="true" /> 
            <parkingAreaReroute id="pa-172" visible="true" /> 
            <parkingAreaReroute id="pa196" visible="true" /> 
            <parkingAreaReroute id="pa184" visible="true" /> 
            <parkingAreaReroute id="pa164" visible="true" /> 
            <parkingAreaReroute id="pa-184" visible="true" /> 
            <parkingAreaReroute id="pa-148" visible="true" /> 
            <parkingAreaReroute id="pa152" visible="true" /> 
            <parkingAreaReroute id="pa-196" visible="true" /> 
            <parkingAreaReroute id="pa-131" visible="true" /> 
            <parkingAreaReroute id="pa-residential_east" visible="true" /> 
        </interval>
    </rerouter>

    <rerouter id="pa-196" edges="-196">
        <interval begin="0.0" end="950400">
             
            <parkingAreaReroute id="pa-196" visible="true" /> 
            <parkingAreaReroute id="pa190" visible="true" /> 
            <parkingAreaReroute id="pa184" visible="true" /> 
            <parkingAreaReroute id="pa-172" visible="true" /> 
            <parkingAreaReroute id="pa-184" visible="true" /> 
            <parkingAreaReroute id="pa164" visible="true" /> 
            <parkingAreaReroute id="pa-148" visible="true" /> 
            <parkingAreaReroute id="pa229" visible="true" /> 
            <parkingAreaReroute id="pa219" visible="true" /> 
            <parkingAreaReroute id="pa152" visible="true" /> 
            <parkingAreaReroute id="pa196" visible="true" /> 
        </interval>
    </rerouter>

    <rerouter id="pa-199" edges="-199">
        <interval begin="0.0" end="950400">
             
            <parkingAreaReroute id="pa-199" visible="true" /> 
            <parkingAreaReroute id="pa-43" visible="true" /> 
            <parkingAreaReroute id="pa68" visible="true" /> 
            <parkingAreaReroute id="pa55" visible="true" /> 
            <parkingAreaReroute id="pa45" visible="true" /> 
            <parkingAreaReroute id="pa-27" visible="true" /> 
            <parkingAreaReroute id="pa202" visible="true" /> 
            <parkingAreaReroute id="pa-71" visible="true" /> 
            <parkingAreaReroute id="pa71" visible="true" /> 
            <parkingAreaReroute id="pa-3" visible="true" /> 
            <parkingAreaReroute id="pa43" visible="true" /> 
        </interval>
    </rerouter>

    <rerouter id="pa-202" edges="-202">
        <interval begin="0.0" end="950400">
             
            <parkingAreaReroute id="pa-202" visible="true" /> 
            <parkingAreaReroute id="pa71" visible="true" /> 
            <parkingAreaReroute id="pa-55" visible="true" /> 
            <parkingAreaReroute id="pa-27" visible="true" /> 
            <parkingAreaReroute id="pa43" visible="true" /> 
            <parkingAreaReroute id="pa45" visible="true" /> 
            <parkingAreaReroute id="pa-3" visible="true" /> 
            <parkingAreaReroute id="pa27" visible="true" /> 
            <parkingAreaReroute id="pa-71" visible="true" /> 
            <parkingAreaReroute id="pa68" visible="true" /> 
            <parkingAreaReroute id="pa199" visible="true" /> 
        </interval>
    </rerouter>

    <rerouter id="pa-206" edges="-206">
        <interval begin="0.0" end="950400">
             
            <parkingAreaReroute id="pa-206" visible="true" /> 
            <parkingAreaReroute id="pa15" visible="true" /> 
            <parkingAreaReroute id="pa3" visible="true" /> 
            <parkingAreaReroute id="pa11" visible="true" /> 
            <parkingAreaReroute id="pa109" visible="true" /> 
            <parkingAreaReroute id="pa23" visible="true" /> 
            <parkingAreaReroute id="pa-120" visible="true" /> 
            <parkingAreaReroute id="pa-residential_south" visible="true" /> 
            <parkingAreaReroute id="pa-144" visible="true" /> 
            <parkingAreaReroute id="pa-industrial2" visible="true" /> 
            <parkingAreaReroute id="pa-123" visible="true" /> 
        </interval>
    </rerouter>

    <rerouter id="pa-229" edges="-229">
        <interval begin="0.0" end="950400">
             
            <parkingAreaReroute id="pa-229" visible="true" /> 
            <parkingAreaReroute id="pa219" visible="true" /> 
            <parkingAreaReroute id="pa-190" visible="true" /> 
            <parkingAreaReroute id="pa-172" visible="true" /> 
            <parkingAreaReroute id="pa196" visible="true" /> 
            <parkingAreaReroute id="pa184" visible="true" /> 
            <parkingAreaReroute id="pa164" visible="true" /> 
            <parkingAreaReroute id="pa-184" visible="true" /> 
            <parkingAreaReroute id="pa-148" visible="true" /> 
            <parkingAreaReroute id="pa152" visible="true" /> 
            <parkingAreaReroute id="pa-196" visible="true" /> 
        </interval>
    </rerouter>

    <rerouter id="pa-23" edges="-23">
        <interval begin="0.0" end="950400">
             
            <parkingAreaReroute id="pa-23" visible="true" /> 
            <parkingAreaReroute id="pa109" visible="true" /> 
            <parkingAreaReroute id="pa-11" visible="true" /> 
            <parkingAreaReroute id="pa-outside2" visible="true" /> 
            <parkingAreaReroute id="pa3" visible="true" /> 
            <parkingAreaReroute id="pa-120" visible="true" /> 
            <parkingAreaReroute id="pa-residential_south" visible="true" /> 
            <parkingAreaReroute id="pa15" visible="true" /> 
            <parkingAreaReroute id="pa5" visible="true" /> 
            <parkingAreaReroute id="pa123" visible="true" /> 
            <parkingAreaReroute id="pa-central" visible="true" /> 
        </interval>
    </rerouter>

    <rerouter id="pa-27" edges="-27">
        <interval begin="0.0" end="950400">
             
            <parkingAreaReroute id="pa-27" visible="true" /> 
            <parkingAreaReroute id="pa-71" visible="true" /> 
            <parkingAreaReroute id="pa-3" visible="true" /> 
            <parkingAreaReroute id="pa-55" visible="true" /> 
            <parkingAreaReroute id="pa202" visible="true" /> 
            <parkingAreaReroute id="pa5" visible="true" /> 
            <parkingAreaReroute id="pa11" visible="true" /> 
            <parkingAreaReroute id="pa15" visible="true" /> 
            <parkingAreaReroute id="pa43" visible="true" /> 
            <parkingAreaReroute id="pa45" visible="true" /> 
            <parkingAreaReroute id="pa-199" visible="true" /> 
        </interval>
    </rerouter>

    <rerouter id="pa-3" edges="-3">
        <interval begin="0.0" end="950400">
             
            <parkingAreaReroute id="pa-3" visible="true" /> 
            <parkingAreaReroute id="pa5" visible="true" /> 
            <parkingAreaReroute id="pa11" visible="true" /> 
            <parkingAreaReroute id="pa15" visible="true" /> 
            <parkingAreaReroute id="pa109" visible="true" /> 
            <parkingAreaReroute id="pa23" visible="true" /> 
            <parkingAreaReroute id="pa-120" visible="true" /> 
            <parkingAreaReroute id="pa-residential_south" visible="true" /> 
            <parkingAreaReroute id="pa123" visible="true" /> 
            <parkingAreaReroute id="pa-central" visible="true" /> 
            <parkingAreaReroute id="pa131" visible="true" /> 
        </interval>
    </rerouter>

    <rerouter id="pa-31" edges="-31">
        <interval begin="0.0" end="950400">
             
            <parkingAreaReroute id="pa-31" visible="true" /> 
            <parkingAreaReroute id="pa37" visible="true" /> 
            <parkingAreaReroute id="pa-23" visible="true" /> 
            <parkingAreaReroute id="pa109" visible="true" /> 
            <parkingAreaReroute id="pa-11" visible="true" /> 
            <parkingAreaReroute id="pa-outside2" visible="true" /> 
            <parkingAreaReroute id="pa3" visible="true" /> 
            <parkingAreaReroute id="pa-120" visible="true" /> 
            <parkingAreaReroute id="pa-residential_south" visible="true" /> 
            <parkingAreaReroute id="pa15" visible="true" /> 
            <parkingAreaReroute id="pa5" visible="true" /> 
        </interval>
    </rerouter>

    <rerouter id="pa-334" edges="-334">
        <interval begin="0.0" end="950400">
             
            <parkingAreaReroute id="pa-334" visible="true" /> 
            <parkingAreaReroute id="pa-202" visible="true" /> 
            <parkingAreaReroute id="pa-199" visible="true" /> 
            <parkingAreaReroute id="pa338" visible="true" /> 
            <parkingAreaReroute id="pa71" visible="true" /> 
            <parkingAreaReroute id="pa-55" visible="true" /> 
            <parkingAreaReroute id="pa-43" visible="true" /> 
            <parkingAreaReroute id="pa68" visible="true" /> 
            <parkingAreaReroute id="pa-338" visible="true" /> 
            <parkingAreaReroute id="pa-27" visible="true" /> 
            <parkingAreaReroute id="pa43" visible="true" /> 
        </interval>
    </rerouter>

    <rerouter id="pa-338" edges="-338">
        <interval begin="0.0" end="950400">
             
            <parkingAreaReroute id="pa-338" visible="true" /> 
            <parkingAreaReroute id="pa334" visible="true" /> 
            <parkingAreaReroute id="pa-202" visible="true" /> 
            <parkingAreaReroute id="pa-199" visible="true" /> 
            <parkingAreaReroute id="pa71" visible="true" /> 
            <parkingAreaReroute id="pa-55" visible="true" /> 
            <parkingAreaReroute id="pa-334" visible="true" /> 
            <parkingAreaReroute id="pa-43" visible="true" /> 
            <parkingAreaReroute id="pa68" visible="true" /> 
            <parkingAreaReroute id="pa-27" visible="true" /> 
            <parkingAreaReroute id="pa43" visible="true" /> 
        </interval>
    </rerouter>

    <rerouter id="pa-43" edges="-43">
        <interval begin="0.0" end="950400">
             
            <parkingAreaReroute id="pa-43" visible="true" /> 
            <parkingAreaReroute id="pa55" visible="true" /> 
            <parkingAreaReroute id="pa45" visible="true" /> 
            <parkingAreaReroute id="pa-27" visible="true" /> 
            <parkingAreaReroute id="pa202" visible="true" /> 
            <parkingAreaReroute id="pa-71" visible="true" /> 
            <parkingAreaReroute id="pa71" visible="true" /> 
            <parkingAreaReroute id="pa-3" visible="true" /> 
            <parkingAreaReroute id="pa-55" visible="true" /> 
            <parkingAreaReroute id="pa-199" visible="true" /> 
            <parkingAreaReroute id="pa27" visible="true" /> 
        </interval>
    </rerouter>

    <rerouter id="pa-55" edges="-55">
        <interval begin="0.0" end="950400">
             
            <parkingAreaReroute id="pa-55" visible="true" /> 
            <parkingAreaReroute id="pa-27" visible="true" /> 
            <parkingAreaReroute id="pa43" visible="true" /> 
            <parkingAreaReroute id="pa45" visible="true" /> 
            <parkingAreaReroute id="pa-71" visible="true" /> 
            <parkingAreaReroute id="pa68" visible="true" /> 
            <parkingAreaReroute id="pa-3" visible="true" /> 
            <parkingAreaReroute id="pa199" visible="true" /> 
            <parkingAreaReroute id="pa202" visible="true" /> 
            <parkingAreaReroute id="pa-43" visible="true" /> 
            <parkingAreaReroute id="pa5" visible="true" /> 
        </interval>
    </rerouter>

    <rerouter id="pa-60" edges="-60">
        <interval begin="0.0" end="950400">
             
            <parkingAreaReroute id="pa-60" visible="true" /> 
            <parkingAreaReroute id="pa64" visible="true" /> 
            <parkingAreaReroute id="pa58" visible="true" /> 
            <parkingAreaReroute id="pa-31" visible="true" /> 
            <parkingAreaReroute id="pa37" visible="true" /> 
            <parkingAreaReroute id="pa120" visible="true" /> 
            <parkingAreaReroute id="pa-23" visible="true" /> 
            <parkingAreaReroute id="pa-75" visible="true" /> 
            <parkingAreaReroute id="pa-residential_west" visible="true" /> 
            <parkingAreaReroute id="pa162" visible="true" /> 
            <parkingAreaReroute id="pa109" visible="true" /> 
        </interval>
    </rerouter>

    <rerouter id="pa-64" edges="-64">
        <interval begin="0.0" end="950400">
             
            <parkingAreaReroute id="pa-64" visible="true" /> 
            <parkingAreaReroute id="pa60" visible="true" /> 
            <parkingAreaReroute id="pa-31" visible="true" /> 
            <parkingAreaReroute id="pa58" visible="true" /> 
            <parkingAreaReroute id="pa75" visible="true" /> 
            <parkingAreaReroute id="pa92" visible="true" /> 
            <parkingAreaReroute id="pa37" visible="true" /> 
            <parkingAreaReroute id="pa79" visible="true" /> 
            <parkingAreaReroute id="pa-23" visible="true" /> 
            <parkingAreaReroute id="pa-79" visible="true" /> 
            <parkingAreaReroute id="pa109" visible="true" /> 
        </interval>
    </rerouter>

    <rerouter id="pa-71" edges="-71">
        <interval begin="0.0" end="950400">
             
            <parkingAreaReroute id="pa-71" visible="true" /> 
            <parkingAreaReroute id="pa-55" visible="true" /> 
            <parkingAreaReroute id="pa202" visible="true" /> 
            <parkingAreaReroute id="pa-27" visible="true" /> 
            <parkingAreaReroute id="pa43" visible="true" /> 
            <parkingAreaReroute id="pa45" visible="true" /> 
            <parkingAreaReroute id="pa-199" visible="true" /> 
            <parkingAreaReroute id="pa338" visible="true" /> 
            <parkingAreaReroute id="pa334" visible="true" /> 
            <parkingAreaReroute id="pa68" visible="true" /> 
            <parkingAreaReroute id="pa-3" visible="true" /> 
        </interval>
    </rerouter>

    <rerouter id="pa-75" edges="-75">
        <interval begin="0.0" end="950400">
             
            <parkingAreaReroute id="pa-75" visible="true" /> 
            <parkingAreaReroute id="pa92" visible="true" /> 
            <parkingAreaReroute id="pa79" visible="true" /> 
            <parkingAreaReroute id="pa-60" visible="true" /> 
            <parkingAreaReroute id="pa-79" visible="true" /> 
            <parkingAreaReroute id="pa64" visible="true" /> 
            <parkingAreaReroute id="pa58" visible="true" /> 
            <parkingAreaReroute id="pa-31" visible="true" /> 
            <parkingAreaReroute id="pa37" visible="true" /> 
            <parkingAreaReroute id="pa120" visible="true" /> 
            <parkingAreaReroute id="pa-23" visible="true" /> 
        </interval>
    </rerouter>

    <rerouter id="pa-79" edges="-79">
        <interval begin="0.0" end="950400">
             
            <parkingAreaReroute id="pa-79" visible="true" /> 
            <parkingAreaReroute id="pa92" visible="true" /> 
            <parkingAreaReroute id="pa-60" visible="true" /> 
            <parkingAreaReroute id="pa75" visible="true" /> 
            <parkingAreaReroute id="pa64" visible="true" /> 
            <parkingAreaReroute id="pa58" visible="true" /> 
            <parkingAreaReroute id="pa-31" visible="true" /> 
            <parkingAreaReroute id="pa-64" visible="true" /> 
            <parkingAreaReroute id="pa120" visible="true" /> 
            <parkingAreaReroute id="pa-residential_west" visible="true" /> 
            <parkingAreaReroute id="pa162" visible="true" /> 
        </interval>
    </rerouter>

    <rerouter id="pa-central" edges="131">
        <interval begin="0.0" end="950400">
             
            <parkingAreaReroute id="pa-central" visible="true" /> 
            <parkingAreaReroute id="pa-industrial1" visible="true" /> 
            <parkingAreaReroute id="pa144" visible="true" /> 
            <parkingAreaReroute id="pa152" visible="true" /> 
            <parkingAreaReroute id="pa148" visible="true" /> 
            <parkingAreaReroute id="pa-164" visible="true" /> 
            <parkingAreaReroute id="pa-162" visible="true" /> 
            <parkingAreaReroute id="pa172" visible="true" /> 
            <parkingAreaReroute id="pa164" visible="true" /> 
            <parkingAreaReroute id="pa-123" visible="true" /> 
            <parkingAreaReroute id="pa-15" visible="true" /> 
        </interval>
    </rerouter>

    <rerouter id="pa-industrial1" edges="144">
        <interval begin="0.0" end="950400">
             
            <parkingAreaReroute id="pa-industrial1" visible="true" /> 
            <parkingAreaReroute id="pa-123" visible="true" /> 
            <parkingAreaReroute id="pa-15" visible="true" /> 
            <parkingAreaReroute id="pa-central" visible="true" /> 
            <parkingAreaReroute id="pa131" visible="true" /> 
            <parkingAreaReroute id="pa-120" visible="true" /> 
            <parkingAreaReroute id="pa-residential_south" visible="true" /> 
            <parkingAreaReroute id="pa-109" visible="true" /> 
            <parkingAreaReroute id="pa11" visible="true" /> 
            <parkingAreaReroute id="pa5" visible="true" /> 
            <parkingAreaReroute id="pa3" visible="true" /> 
        </interval>
    </rerouter>

    <rerouter id="pa-industrial2" edges="-144">
        <interval begin="0.0" end="950400">
             
            <parkingAreaReroute id="pa-industrial2" visible="true" /> 
            <parkingAreaReroute id="pa148" visible="true" /> 
            <parkingAreaReroute id="pa152" visible="true" /> 
            <parkingAreaReroute id="pa-131" visible="true" /> 
            <parkingAreaReroute id="pa-residential_east" visible="true" /> 
            <parkingAreaReroute id="pa-164" visible="true" /> 
            <parkingAreaReroute id="pa172" visible="true" /> 
            <parkingAreaReroute id="pa164" visible="true" /> 
            <parkingAreaReroute id="pa-162" visible="true" /> 
            <parkingAreaReroute id="pa-120" visible="true" /> 
            <parkingAreaReroute id="pa-residential_south" visible="true" /> 
        </interval>
    </rerouter>

    <rerouter id="pa-outside1" edges="31">
        <interval begin="0.0" end="950400">
             
            <parkingAreaReroute id="pa-outside1" visible="true" /> 
            <parkingAreaReroute id="pa64" visible="true" /> 
            <parkingAreaReroute id="pa60" visible="true" /> 
            <parkingAreaReroute id="pa58" visible="true" /> 
            <parkingAreaReroute id="pa120" visible="true" /> 
            <parkingAreaReroute id="pa75" visible="true" /> 
            <parkingAreaReroute id="pa-75" visible="true" /> 
            <parkingAreaReroute id="pa-residential_west" visible="true" /> 
            <parkingAreaReroute id="pa162" visible="true" /> 
            <parkingAreaReroute id="pa92" visible="true" /> 
            <parkingAreaReroute id="pa79" visible="true" /> 
        </interval>
    </rerouter>
