<additional xmlns:xsi="http://www.w3.org/2001/XMLSchema-instance" xsi:noNamespaceSchemaLocation="http://sumo.dlr.de/xsd/additional_file.xsd">
    <parkingArea id="pa-outside2" lane="-11_0" roadsideCapacity="100" /><parkingArea id="pa-outside1" lane="31_0" roadsideCapacity="100" /><parkingArea id="pa-residential_west" lane="162_0" roadsideCapacity="150" /><parkingArea id="pa-residential_east" lane="-131_0" roadsideCapacity="300" /><parkingArea id="pa-residential_south" lane="-120_0" roadsideCapacity="250" /><parkingArea id="pa-central" lane="131_0" roadsideCapacity="300" /><parkingArea id="pa-industrial2" lane="-144_0" roadsideCapacity="150" /><parkingArea id="pa-industrial1" lane="144_0" roadsideCapacity="150" /><parkingArea id="pa-109" lane="-109_0" roadsideCapacity="28" length="5" angle="90.0" />
    <parkingArea id="pa-11" lane="-11_0" roadsideCapacity="28" length="5" angle="90.0" />
    <parkingArea id="pa-120" lane="-120_0" roadsideCapacity="60" length="5" angle="90.0" />
    <parkingArea id="pa-123" lane="-123_0" roadsideCapacity="38" length="5" angle="90.0" />
    <parkingArea id="pa-131" lane="-131_0" roadsideCapacity="58" length="5" angle="90.0" />
    <parkingArea id="pa-144" lane="-144_0" roadsideCapacity="40" length="5" angle="90.0" />
    <parkingArea id="pa-148" lane="-148_0" roadsideCapacity="26" length="5" angle="90.0" />
    <parkingArea id="pa-15" lane="-15_0" roadsideCapacity="60" length="5" angle="90.0" />
    <parkingArea id="pa-152" lane="-152_0" roadsideCapacity="26" length="5" angle="90.0" />
    <parkingArea id="pa-162" lane="-162_0" roadsideCapacity="68" length="5" angle="90.0" />
    <parkingArea id="pa-164" lane="-164_0" roadsideCapacity="38" length="5" angle="90.0" />
    <parkingArea id="pa-172" lane="-172_0" roadsideCapacity="28" length="5" angle="90.0" />
    <parkingArea id="pa-184" lane="-184_0" roadsideCapacity="30" length="5" angle="90.0" />
    <parkingArea id="pa-190" lane="-190_0" roadsideCapacity="60" length="5" angle="90.0" />
    <parkingArea id="pa-196" lane="-196_0" roadsideCapacity="64" length="5" angle="90.0" />
    <parkingArea id="pa-199" lane="-199_0" roadsideCapacity="60" length="5" angle="90.0" />
    <parkingArea id="pa-202" lane="-202_0" roadsideCapacity="40" length="5" angle="90.0" />
    <parkingArea id="pa-206" lane="-206_0" roadsideCapacity="96" length="5" angle="90.0" />
    <parkingArea id="pa-229" lane="-229_0" roadsideCapacity="30" length="5" angle="90.0" />
    <parkingArea id="pa-23" lane="-23_0" roadsideCapacity="28" length="5" angle="90.0" />
    <parkingArea id="pa-27" lane="-27_0" roadsideCapacity="26" length="5" angle="90.0" />
    <parkingArea id="pa-3" lane="-3_0" roadsideCapacity="62" length="5" angle="90.0" />
    <parkingArea id="pa-31" lane="-31_0" roadsideCapacity="26" length="5" angle="90.0" />
    <parkingArea id="pa-334" lane="-334_0" roadsideCapacity="62" length="5" angle="90.0" />
    <parkingArea id="pa-338" lane="-338_0" roadsideCapacity="64" length="5" angle="90.0" />
    <parkingArea id="pa-43" lane="-43_0" roadsideCapacity="26" length="5" angle="90.0" />
    <parkingArea id="pa-55" lane="-55_0" roadsideCapacity="26" length="5" angle="90.0" />
    <parkingArea id="pa-60" lane="-60_0" roadsideCapacity="26" length="5" angle="90.0" />
    <parkingArea id="pa-64" lane="-64_0" roadsideCapacity="26" length="5" angle="90.0" />
    <parkingArea id="pa-71" lane="-71_0" roadsideCapacity="38" length="5" angle="90.0" />
    <parkingArea id="pa-75" lane="-75_0" roadsideCapacity="38" length="5" angle="90.0" />
    <parkingArea id="pa-79" lane="-79_0" roadsideCapacity="30" length="5" angle="90.0" />
    <parkingArea id="pa109" lane="109_0" roadsideCapacity="28" length="5" angle="90.0" />
    <parkingArea id="pa11" lane="11_0" roadsideCapacity="28" length="5" angle="90.0" />
    <parkingArea id="pa120" lane="120_0" roadsideCapacity="60" length="5" angle="90.0" />
    <parkingArea id="pa123" lane="123_0" roadsideCapacity="38" length="5" angle="90.0" />
    <parkingArea id="pa131" lane="131_0" roadsideCapacity="58" length="5" angle="90.0" />
    <parkingArea id="pa144" lane="144_0" roadsideCapacity="40" length="5" angle="90.0" />
    <parkingArea id="pa148" lane="148_0" roadsideCapacity="26" length="5" angle="90.0" />
    <parkingArea id="pa15" lane="15_0" roadsideCapacity="60" length="5" angle="90.0" />
    <parkingArea id="pa152" lane="152_0" roadsideCapacity="26" length="5" angle="90.0" />
    <parkingArea id="pa162" lane="162_0" roadsideCapacity="68" length="5" angle="90.0" />
    <parkingArea id="pa164" lane="164_0" roadsideCapacity="38" length="5" angle="90.0" />
    <parkingArea id="pa172" lane="172_0" roadsideCapacity="28" length="5" angle="90.0" />
    <parkingArea id="pa184" lane="184_0" roadsideCapacity="30" length="5" angle="90.0" />
    <parkingArea id="pa190" lane="190_0" roadsideCapacity="60" length="5" angle="90.0" />
    <parkingArea id="pa196" lane="196_0" roadsideCapacity="64" length="5" angle="90.0" />
    <parkingArea id="pa199" lane="199_0" roadsideCapacity="60" length="5" angle="90.0" />
    <parkingArea id="pa202" lane="202_0" roadsideCapacity="40" length="5" angle="90.0" />
    <parkingArea id="pa219" lane="219_0" roadsideCapacity="174" length="5" angle="90.0" />
    <parkingArea id="pa229" lane="229_0" roadsideCapacity="30" length="5" angle="90.0" />
    <parkingArea id="pa23" lane="23_0" roadsideCapacity="28" length="5" angle="90.0" />
    <parkingArea id="pa27" lane="27_0" roadsideCapacity="26" length="5" angle="90.0" />
    <parkingArea id="pa3" lane="3_0" roadsideCapacity="62" length="5" angle="90.0" />
    <parkingArea id="pa31" lane="31_0" roadsideCapacity="26" length="5" angle="90.0" />
    <parkingArea id="pa334" lane="334_0" roadsideCapacity="62" length="5" angle="90.0" />
    <parkingArea id="pa338" lane="338_0" roadsideCapacity="64" length="5" angle="90.0" />
    <parkingArea id="pa37" lane="37_0" roadsideCapacity="70" length="5" angle="90.0" />
    <parkingArea id="pa43" lane="43_0" roadsideCapacity="26" length="5" angle="90.0" />
    <parkingArea id="pa45" lane="45_0" roadsideCapacity="76" length="5" angle="90.0" />
    <parkingArea id="pa5" lane="5_0" roadsideCapacity="98" length="5" angle="90.0" />
    <parkingArea id="pa55" lane="55_0" roadsideCapacity="26" length="5" angle="90.0" />
    <parkingArea id="pa58" lane="58_0" roadsideCapacity="76" length="5" angle="90.0" />
    <parkingArea id="pa60" lane="60_0" roadsideCapacity="26" length="5" angle="90.0" />
    <parkingArea id="pa64" lane="64_0" roadsideCapacity="26" length="5" angle="90.0" />
    <parkingArea id="pa68" lane="68_0" roadsideCapacity="70" length="5" angle="90.0" />
    <parkingArea id="pa71" lane="71_0" roadsideCapacity="38" length="5" angle="90.0" />
    <parkingArea id="pa75" lane="75_0" roadsideCapacity="38" length="5" angle="90.0" />
    <parkingArea id="pa79" lane="79_0" roadsideCapacity="30" length="5" angle="90.0" />
    <parkingArea id="pa92" lane="92_0" roadsideCapacity="174" length="5" angle="90.0" />
</additional>