<?xml version="1.0" encoding="UTF-8"?>

<!-- generated on 2024-02-22 14:04:08 by Eclipse SUMO netgenerate Version 1.19.0
<configuration xmlns:xsi="http://www.w3.org/2001/XMLSchema-instance" xsi:noNamespaceSchemaLocation="http://sumo.dlr.de/xsd/netgenerateConfiguration.xsd">

    <random_network>
        <rand value="true"/>
        <rand.iterations value="30"/>
        <rand.grid value="true"/>
    </random_network>

    <output>
        <output-file value="../02_scenario/rand_grid.net.xml"/>
    </output>

    <processing>
        <geometry.remove value="true"/>
        <roundabouts.guess value="true"/>
    </processing>

    <tls_building>
        <tls.set value="1"/>
        <tls.guess value="true"/>
        <tls.default-type value="actuated"/>
    </tls_building>

    <junctions>
        <no-turnarounds.except-deadend value="true"/>
    </junctions>

</configuration>
-->

<net version="1.16" junctionCornerDetail="5" limitTurnSpeed="5.50" xmlns:xsi="http://www.w3.org/2001/XMLSchema-instance" xsi:noNamespaceSchemaLocation="http://sumo.dlr.de/xsd/net_file.xsd">

    <location netOffset="500.00,400.00" convBoundary="0.00,0.00,900.00,1100.00" origBoundary="-500.00,-400.00,400.00,700.00" projParameter="!"/>

    <edge id=":1_0" function="internal">
        <lane id=":1_0_0" index="0" speed="6.51" length="9.03" shape="498.40,407.20 498.05,404.75 497.00,403.00 495.25,401.95 492.80,401.60"/>
    </edge>
    <edge id=":1_1" function="internal">
        <lane id=":1_1_0" index="0" speed="13.89" length="14.40" shape="498.40,407.20 498.40,392.80"/>
    </edge>
    <edge id=":1_2" function="internal">
        <lane id=":1_2_0" index="0" speed="8.00" length="4.07" shape="498.40,407.20 498.95,403.35 499.04,403.20"/>
    </edge>
    <edge id=":1_12" function="internal">
        <lane id=":1_12_0" index="0" speed="8.00" length="10.13" shape="499.04,403.20 500.60,400.60 503.35,398.95 507.20,398.40"/>
    </edge>
    <edge id=":1_3" function="internal">
        <lane id=":1_3_0" index="0" speed="6.51" length="9.03" shape="507.20,401.60 504.75,401.95 503.00,403.00 501.95,404.75 501.60,407.20"/>
    </edge>
    <edge id=":1_4" function="internal">
        <lane id=":1_4_0" index="0" speed="13.89" length="14.40" shape="507.20,401.60 492.80,401.60"/>
    </edge>
    <edge id=":1_5" function="internal">
        <lane id=":1_5_0" index="0" speed="8.00" length="4.07" shape="507.20,401.60 503.35,401.05 503.20,400.96"/>
    </edge>
    <edge id=":1_13" function="internal">
        <lane id=":1_13_0" index="0" speed="8.00" length="10.13" shape="503.20,400.96 500.60,399.40 498.95,396.65 498.40,392.80"/>
    </edge>
    <edge id=":1_6" function="internal">
        <lane id=":1_6_0" index="0" speed="6.51" length="9.03" shape="501.60,392.80 501.95,395.25 503.00,397.00 504.75,398.05 507.20,398.40"/>
    </edge>
    <edge id=":1_7" function="internal">
        <lane id=":1_7_0" index="0" speed="13.89" length="14.40" shape="501.60,392.80 501.60,407.20"/>
    </edge>
    <edge id=":1_8" function="internal">
        <lane id=":1_8_0" index="0" speed="8.00" length="4.07" shape="501.60,392.80 501.05,396.65 500.96,396.80"/>
    </edge>
    <edge id=":1_14" function="internal">
        <lane id=":1_14_0" index="0" speed="8.00" length="10.13" shape="500.96,396.80 499.40,399.40 496.65,401.05 492.80,401.60"/>
    </edge>
    <edge id=":1_9" function="internal">
        <lane id=":1_9_0" index="0" speed="6.51" length="9.03" shape="492.80,398.40 495.25,398.05 497.00,397.00 498.05,395.25 498.40,392.80"/>
    </edge>
    <edge id=":1_10" function="internal">
        <lane id=":1_10_0" index="0" speed="13.89" length="14.40" shape="492.80,398.40 507.20,398.40"/>
    </edge>
    <edge id=":1_11" function="internal">
        <lane id=":1_11_0" index="0" speed="8.00" length="4.07" shape="492.80,398.40 496.65,398.95 496.80,399.04"/>
    </edge>
    <edge id=":1_15" function="internal">
        <lane id=":1_15_0" index="0" speed="8.00" length="10.13" shape="496.80,399.04 499.40,400.60 501.05,403.35 501.60,407.20"/>
    </edge>
    <edge id=":10_0" function="internal">
        <lane id=":10_0_0" index="0" speed="6.51" length="9.03" shape="398.40,407.20 398.05,404.75 397.00,403.00 395.25,401.95 392.80,401.60"/>
    </edge>
    <edge id=":10_1" function="internal">
        <lane id=":10_1_0" index="0" speed="8.00" length="14.19" shape="398.40,407.20 398.95,403.35 400.60,400.60 403.35,398.95 407.20,398.40"/>
    </edge>
    <edge id=":10_2" function="internal">
        <lane id=":10_2_0" index="0" speed="6.51" length="9.03" shape="407.20,401.60 404.75,401.95 403.00,403.00 401.95,404.75 401.60,407.20"/>
    </edge>
    <edge id=":10_3" function="internal">
        <lane id=":10_3_0" index="0" speed="13.89" length="14.40" shape="407.20,401.60 392.80,401.60"/>
    </edge>
    <edge id=":10_4" function="internal">
        <lane id=":10_4_0" index="0" speed="13.89" length="14.40" shape="392.80,398.40 407.20,398.40"/>
    </edge>
    <edge id=":10_5" function="internal">
        <lane id=":10_5_0" index="0" speed="8.00" length="4.07" shape="392.80,398.40 396.65,398.95 396.80,399.04"/>
    </edge>
    <edge id=":10_6" function="internal">
        <lane id=":10_6_0" index="0" speed="8.00" length="10.13" shape="396.80,399.04 399.40,400.60 401.05,403.35 401.60,407.20"/>
    </edge>
    <edge id=":108_0" function="internal">
        <lane id=":108_0_0" index="0" speed="7.65" length="12.89" shape="398.40,511.73 398.05,507.30 397.00,504.13 395.25,502.23 392.80,501.60"/>
    </edge>
    <edge id=":108_1" function="internal">
        <lane id=":108_1_0" index="0" speed="13.89" length="18.93" shape="398.40,511.73 398.40,492.80"/>
    </edge>
    <edge id=":108_2" function="internal">
        <lane id=":108_2_0" index="0" speed="7.42" length="6.00" shape="398.40,511.73 399.07,505.76"/>
    </edge>
    <edge id=":108_12" function="internal">
        <lane id=":108_12_0" index="0" speed="7.42" length="13.30" shape="399.07,505.76 399.09,505.59 401.16,502.79 404.60,503.31 409.42,507.16"/>
    </edge>
    <edge id=":108_3" function="internal">
        <lane id=":108_3_0" index="0" speed="5.47" length="9.74" shape="407.16,509.42 404.73,507.48 402.99,507.22 401.95,508.63 401.60,511.73"/>
    </edge>
    <edge id=":108_4" function="internal">
        <lane id=":108_4_0" index="0" speed="13.42" length="16.74" shape="407.16,509.42 403.33,506.00 399.66,503.56 396.15,502.09 392.80,501.60"/>
    </edge>
    <edge id=":108_5" function="internal">
        <lane id=":108_5_0" index="0" speed="13.89" length="19.06" shape="407.16,509.42 403.94,505.53 401.14,500.94 399.15,496.44 398.40,492.80"/>
    </edge>
    <edge id=":108_6" function="internal">
        <lane id=":108_6_0" index="0" speed="13.42" length="16.74" shape="401.60,492.80 402.09,496.15 403.56,499.66 406.00,503.33 409.42,507.16"/>
    </edge>
    <edge id=":108_7" function="internal">
        <lane id=":108_7_0" index="0" speed="13.89" length="18.93" shape="401.60,492.80 401.60,511.73"/>
    </edge>
    <edge id=":108_8" function="internal">
        <lane id=":108_8_0" index="0" speed="8.00" length="4.07" shape="401.60,492.80 401.05,496.65 400.96,496.80"/>
    </edge>
    <edge id=":108_13" function="internal">
        <lane id=":108_13_0" index="0" speed="8.00" length="10.13" shape="400.96,496.80 399.40,499.40 396.65,501.05 392.80,501.60"/>
    </edge>
    <edge id=":108_9" function="internal">
        <lane id=":108_9_0" index="0" speed="6.51" length="9.03" shape="392.80,498.40 395.25,498.05 397.00,497.00 398.05,495.25 398.40,492.80"/>
    </edge>
    <edge id=":108_10" function="internal">
        <lane id=":108_10_0" index="0" speed="13.89" length="19.24" shape="392.80,498.40 396.79,498.95 400.89,500.59 405.10,503.33 409.42,507.16"/>
    </edge>
    <edge id=":108_11" function="internal">
        <lane id=":108_11_0" index="0" speed="8.71" length="17.02" shape="392.80,498.40 396.03,499.73 398.85,503.07 400.84,507.40 401.60,511.73"/>
    </edge>
    <edge id=":130_0" function="internal">
        <lane id=":130_0_0" index="0" speed="6.51" length="9.03" shape="398.40,707.20 398.05,704.75 397.00,703.00 395.25,701.95 392.80,701.60"/>
    </edge>
    <edge id=":130_1" function="internal">
        <lane id=":130_1_0" index="0" speed="13.89" length="18.93" shape="398.40,707.20 398.40,688.27"/>
    </edge>
    <edge id=":130_2" function="internal">
        <lane id=":130_2_0" index="0" speed="13.89" length="4.39" shape="398.40,707.20 399.15,703.56 399.42,702.95"/>
    </edge>
    <edge id=":130_12" function="internal">
        <lane id=":130_12_0" index="0" speed="13.89" length="14.68" shape="399.42,702.95 401.14,699.06 403.94,694.47 407.16,690.58"/>
    </edge>
    <edge id=":130_3" function="internal">
        <lane id=":130_3_0" index="0" speed="13.42" length="16.74" shape="409.42,692.84 406.00,696.67 403.56,700.34 402.09,703.85 401.60,707.20"/>
    </edge>
    <edge id=":130_4" function="internal">
        <lane id=":130_4_0" index="0" speed="13.89" length="19.24" shape="409.42,692.84 405.10,696.67 400.89,699.41 396.79,701.05 392.80,701.60"/>
    </edge>
    <edge id=":130_5" function="internal">
        <lane id=":130_5_0" index="0" speed="7.42" length="19.31" shape="409.42,692.84 404.60,696.69 401.16,697.21 399.09,694.41 398.40,688.27"/>
    </edge>
    <edge id=":130_6" function="internal">
        <lane id=":130_6_0" index="0" speed="5.47" length="9.74" shape="401.60,688.27 401.95,691.37 402.99,692.78 404.73,692.52 407.16,690.58"/>
    </edge>
    <edge id=":130_7" function="internal">
        <lane id=":130_7_0" index="0" speed="13.89" length="18.93" shape="401.60,688.27 401.60,707.20"/>
    </edge>
    <edge id=":130_8" function="internal">
        <lane id=":130_8_0" index="0" speed="8.71" length="6.18" shape="401.60,688.27 400.84,692.60 400.10,694.22"/>
    </edge>
    <edge id=":130_13" function="internal">
        <lane id=":130_13_0" index="0" speed="8.71" length="10.84" shape="400.10,694.22 398.85,696.93 396.03,700.27 392.80,701.60"/>
    </edge>
    <edge id=":130_9" function="internal">
        <lane id=":130_9_0" index="0" speed="7.65" length="12.89" shape="392.80,698.40 395.25,697.77 397.00,695.87 398.05,692.70 398.40,688.27"/>
    </edge>
    <edge id=":130_10" function="internal">
        <lane id=":130_10_0" index="0" speed="13.40" length="16.68" shape="392.80,698.40 396.66,697.67 400.53,695.81 404.13,693.29 407.16,690.58"/>
    </edge>
    <edge id=":130_11" function="internal">
        <lane id=":130_11_0" index="0" speed="8.00" length="14.19" shape="392.80,698.40 396.65,698.95 399.40,700.60 401.05,703.35 401.60,707.20"/>
    </edge>
    <edge id=":14_0" function="internal">
        <lane id=":14_0_0" index="0" speed="13.89" length="19.24" shape="501.60,588.27 501.25,594.04 500.21,598.96 498.47,603.02 496.04,606.22"/>
    </edge>
    <edge id=":14_1" function="internal">
        <lane id=":14_1_0" index="0" speed="7.42" length="6.93" shape="501.60,588.27 500.91,594.41 500.46,595.02"/>
    </edge>
    <edge id=":14_6" function="internal">
        <lane id=":14_6_0" index="0" speed="7.42" length="12.37" shape="500.46,595.02 498.84,597.21 495.40,596.69 490.58,592.84"/>
    </edge>
    <edge id=":14_2" function="internal">
        <lane id=":14_2_0" index="0" speed="5.47" length="9.74" shape="492.84,590.58 495.27,592.52 497.01,592.78 498.05,591.37 498.40,588.27"/>
    </edge>
    <edge id=":14_3" function="internal">
        <lane id=":14_3_0" index="0" speed="8.94" length="17.99" shape="492.84,590.58 496.57,595.09 498.35,599.20 498.17,602.91 496.04,606.22"/>
    </edge>
    <edge id=":14_4" function="internal">
        <lane id=":14_4_0" index="0" speed="7.65" length="12.89" shape="493.78,603.96 495.06,601.78 494.96,599.20 493.46,596.22 490.58,592.84"/>
    </edge>
    <edge id=":14_5" function="internal">
        <lane id=":14_5_0" index="0" speed="13.42" length="16.74" shape="493.78,603.96 495.80,601.25 497.24,597.73 498.11,593.40 498.40,588.27"/>
    </edge>
    <edge id=":147_0" function="internal">
        <lane id=":147_0_0" index="0" speed="12.77" length="15.10" shape="398.40,805.33 397.67,801.76 395.81,798.53 393.29,795.58 390.58,792.84"/>
    </edge>
    <edge id=":147_1" function="internal">
        <lane id=":147_1_0" index="0" speed="13.89" length="17.05" shape="398.40,805.33 398.40,788.27"/>
    </edge>
    <edge id=":147_2" function="internal">
        <lane id=":147_2_0" index="0" speed="13.89" length="17.05" shape="401.60,788.27 401.60,805.33"/>
    </edge>
    <edge id=":147_3" function="internal">
        <lane id=":147_3_0" index="0" speed="7.42" length="6.00" shape="401.60,788.27 400.93,794.24"/>
    </edge>
    <edge id=":147_6" function="internal">
        <lane id=":147_6_0" index="0" speed="7.42" length="13.30" shape="400.93,794.24 400.91,794.41 398.84,797.21 395.40,796.69 390.58,792.84"/>
    </edge>
    <edge id=":147_4" function="internal">
        <lane id=":147_4_0" index="0" speed="5.47" length="9.74" shape="392.84,790.58 395.27,792.52 397.01,792.78 398.05,791.37 398.40,788.27"/>
    </edge>
    <edge id=":147_5" function="internal">
        <lane id=":147_5_0" index="0" speed="13.71" length="17.48" shape="392.84,790.58 395.70,793.67 398.55,797.40 400.73,801.41 401.60,805.33"/>
    </edge>
    <edge id=":151_0" function="internal">
        <lane id=":151_0_0" index="0" speed="13.89" length="18.07" shape="307.16,709.42 304.22,706.36 301.04,702.75 298.10,698.95 295.90,695.37"/>
    </edge>
    <edge id=":151_1" function="internal">
        <lane id=":151_1_0" index="0" speed="7.42" length="6.29" shape="307.16,709.42 303.31,704.60 303.29,704.48"/>
    </edge>
    <edge id=":151_6" function="internal">
        <lane id=":151_6_0" index="0" speed="7.42" length="13.02" shape="303.29,704.48 302.79,701.16 305.59,699.09 311.73,698.40"/>
    </edge>
    <edge id=":151_2" function="internal">
        <lane id=":151_2_0" index="0" speed="5.47" length="9.74" shape="311.73,701.60 308.63,701.95 307.22,702.99 307.48,704.73 309.42,707.16"/>
    </edge>
    <edge id=":151_3" function="internal">
        <lane id=":151_3_0" index="0" speed="10.97" length="17.83" shape="311.73,701.60 305.97,701.21 301.41,700.04 298.05,698.10 295.90,695.37"/>
    </edge>
    <edge id=":151_4" function="internal">
        <lane id=":151_4_0" index="0" speed="9.88" length="14.31" shape="298.76,693.94 300.40,695.89 303.12,697.28 306.89,698.12 311.73,698.40"/>
    </edge>
    <edge id=":151_5" function="internal">
        <lane id=":151_5_0" index="0" speed="13.89" length="17.04" shape="298.76,693.94 300.87,697.39 303.60,700.90 306.58,704.23 309.42,707.16"/>
    </edge>
    <edge id=":171_0" function="internal">
        <lane id=":171_0_0" index="0" speed="6.51" length="9.03" shape="398.40,907.20 398.05,904.75 397.00,903.00 395.25,901.95 392.80,901.60"/>
    </edge>
    <edge id=":171_1" function="internal">
        <lane id=":171_1_0" index="0" speed="13.89" length="14.40" shape="398.40,907.20 398.40,892.80"/>
    </edge>
    <edge id=":171_2" function="internal">
        <lane id=":171_2_0" index="0" speed="8.00" length="4.07" shape="398.40,907.20 398.95,903.35 399.04,903.20"/>
    </edge>
    <edge id=":171_12" function="internal">
        <lane id=":171_12_0" index="0" speed="8.00" length="10.13" shape="399.04,903.20 400.60,900.60 403.35,898.95 407.20,898.40"/>
    </edge>
    <edge id=":171_3" function="internal">
        <lane id=":171_3_0" index="0" speed="6.51" length="9.03" shape="407.20,901.60 404.75,901.95 403.00,903.00 401.95,904.75 401.60,907.20"/>
    </edge>
    <edge id=":171_4" function="internal">
        <lane id=":171_4_0" index="0" speed="13.89" length="14.40" shape="407.20,901.60 392.80,901.60"/>
    </edge>
    <edge id=":171_5" function="internal">
        <lane id=":171_5_0" index="0" speed="8.00" length="14.19" shape="407.20,901.60 403.35,901.05 400.60,899.40 398.95,896.65 398.40,892.80"/>
    </edge>
    <edge id=":171_6" function="internal">
        <lane id=":171_6_0" index="0" speed="6.51" length="9.03" shape="401.60,892.80 401.95,895.25 403.00,897.00 404.75,898.05 407.20,898.40"/>
    </edge>
    <edge id=":171_7" function="internal">
        <lane id=":171_7_0" index="0" speed="13.89" length="14.40" shape="401.60,892.80 401.60,907.20"/>
    </edge>
    <edge id=":171_8" function="internal">
        <lane id=":171_8_0" index="0" speed="8.00" length="4.07" shape="401.60,892.80 401.05,896.65 400.96,896.80"/>
    </edge>
    <edge id=":171_13" function="internal">
        <lane id=":171_13_0" index="0" speed="8.00" length="10.13" shape="400.96,896.80 399.40,899.40 396.65,901.05 392.80,901.60"/>
    </edge>
    <edge id=":171_9" function="internal">
        <lane id=":171_9_0" index="0" speed="6.51" length="9.03" shape="392.80,898.40 395.25,898.05 397.00,897.00 398.05,895.25 398.40,892.80"/>
    </edge>
    <edge id=":171_10" function="internal">
        <lane id=":171_10_0" index="0" speed="13.89" length="14.40" shape="392.80,898.40 407.20,898.40"/>
    </edge>
    <edge id=":171_11" function="internal">
        <lane id=":171_11_0" index="0" speed="8.00" length="14.19" shape="392.80,898.40 396.65,898.95 399.40,900.60 401.05,903.35 401.60,907.20"/>
    </edge>
    <edge id=":183_0" function="internal">
        <lane id=":183_0_0" index="0" speed="3.65" length="4.67" shape="500.00,898.40 501.20,899.20 501.60,900.00 501.20,900.80 500.00,901.60"/>
    </edge>
    <edge id=":189_0" function="internal">
        <lane id=":189_0_0" index="0" speed="10.77" length="10.63" shape="198.40,907.20 198.19,904.13 197.58,901.47 196.55,899.22 195.10,897.37"/>
    </edge>
    <edge id=":189_1" function="internal">
        <lane id=":189_1_0" index="0" speed="8.00" length="3.65" shape="198.40,907.20 198.92,903.59"/>
    </edge>
    <edge id=":189_6" function="internal">
        <lane id=":189_6_0" index="0" speed="8.00" length="10.54" shape="198.92,903.59 198.95,903.35 200.60,900.60 203.35,898.95 207.20,898.40"/>
    </edge>
    <edge id=":189_2" function="internal">
        <lane id=":189_2_0" index="0" speed="6.51" length="9.03" shape="207.20,901.60 204.75,901.95 203.00,903.00 201.95,904.75 201.60,907.20"/>
    </edge>
    <edge id=":189_3" function="internal">
        <lane id=":189_3_0" index="0" speed="11.96" length="13.20" shape="207.20,901.60 203.70,901.44 200.60,900.81 197.78,899.52 195.10,897.37"/>
    </edge>
    <edge id=":189_4" function="internal">
        <lane id=":189_4_0" index="0" speed="10.77" length="10.63" shape="197.37,895.10 199.22,896.55 201.47,897.58 204.13,898.19 207.20,898.40"/>
    </edge>
    <edge id=":189_5" function="internal">
        <lane id=":189_5_0" index="0" speed="11.96" length="13.20" shape="197.37,895.10 199.52,897.78 200.81,900.60 201.44,903.70 201.60,907.20"/>
    </edge>
    <edge id=":195_0" function="internal">
        <lane id=":195_0_0" index="0" speed="3.65" length="4.67" shape="401.60,1100.00 400.80,1101.20 400.00,1101.60 399.20,1101.20 398.40,1100.00"/>
    </edge>
    <edge id=":198_0" function="internal">
        <lane id=":198_0_0" index="0" speed="5.47" length="9.74" shape="698.40,11.73 698.05,8.63 697.01,7.22 695.27,7.48 692.84,9.42"/>
    </edge>
    <edge id=":198_1" function="internal">
        <lane id=":198_1_0" index="0" speed="8.54" length="16.33" shape="698.40,11.73 697.77,7.30 695.87,4.13 692.70,2.23 688.27,1.60"/>
    </edge>
    <edge id=":198_2" function="internal">
        <lane id=":198_2_0" index="0" speed="8.94" length="17.99" shape="698.40,11.73 698.95,5.90 700.60,1.73 703.35,-0.77 707.20,-1.60"/>
    </edge>
    <edge id=":198_3" function="internal">
        <lane id=":198_3_0" index="0" speed="7.65" length="12.89" shape="707.20,1.60 704.75,2.23 703.00,4.13 701.95,7.30 701.60,11.73"/>
    </edge>
    <edge id=":198_4" function="internal">
        <lane id=":198_4_0" index="0" speed="13.42" length="16.74" shape="707.20,1.60 703.85,2.09 700.34,3.56 696.67,6.00 692.84,9.42"/>
    </edge>
    <edge id=":198_5" function="internal">
        <lane id=":198_5_0" index="0" speed="13.89" length="18.93" shape="707.20,1.60 688.27,1.60"/>
    </edge>
    <edge id=":198_6" function="internal">
        <lane id=":198_6_0" index="0" speed="13.89" length="18.93" shape="688.27,-1.60 707.20,-1.60"/>
    </edge>
    <edge id=":198_7" function="internal">
        <lane id=":198_7_0" index="0" speed="9.73" length="5.01" shape="688.27,-1.60 693.24,-0.89"/>
    </edge>
    <edge id=":198_8" function="internal">
        <lane id=":198_8_0" index="0" speed="7.42" length="6.00" shape="688.27,-1.60 694.24,-0.93"/>
    </edge>
    <edge id=":198_12" function="internal">
        <lane id=":198_12_0" index="0" speed="9.73" length="16.48" shape="693.24,-0.89 694.10,-0.77 698.27,1.73 700.77,5.90 701.60,11.73"/>
    </edge>
    <edge id=":198_13" function="internal">
        <lane id=":198_13_0" index="0" speed="7.42" length="13.30" shape="694.24,-0.93 694.41,-0.91 697.21,1.16 696.69,4.60 692.84,9.42"/>
    </edge>
    <edge id=":198_9" function="internal">
        <lane id=":198_9_0" index="0" speed="5.47" length="9.74" shape="690.58,7.16 692.52,4.73 692.78,2.99 691.37,1.95 688.27,1.60"/>
    </edge>
    <edge id=":198_10" function="internal">
        <lane id=":198_10_0" index="0" speed="13.89" length="19.24" shape="690.58,7.16 694.90,3.33 699.11,0.59 703.21,-1.05 707.20,-1.60"/>
    </edge>
    <edge id=":198_11" function="internal">
        <lane id=":198_11_0" index="0" speed="7.42" length="19.31" shape="690.58,7.16 695.40,3.31 698.84,2.79 700.91,5.59 701.60,11.73"/>
    </edge>
    <edge id=":2_0" function="internal">
        <lane id=":2_0_0" index="0" speed="13.89" length="17.05" shape="498.40,205.33 498.40,188.27"/>
    </edge>
    <edge id=":2_1" function="internal">
        <lane id=":2_1_0" index="0" speed="13.73" length="3.53" shape="498.40,205.33 498.95,202.16 499.08,201.87"/>
    </edge>
    <edge id=":2_6" function="internal">
        <lane id=":2_6_0" index="0" speed="13.73" length="13.98" shape="499.08,201.87 500.59,198.64 503.33,194.78 507.16,190.58"/>
    </edge>
    <edge id=":2_2" function="internal">
        <lane id=":2_2_0" index="0" speed="12.73" length="15.02" shape="509.42,192.84 506.00,196.55 503.56,199.87 502.09,202.80 501.60,205.33"/>
    </edge>
    <edge id=":2_3" function="internal">
        <lane id=":2_3_0" index="0" speed="7.42" length="19.31" shape="509.42,192.84 504.60,196.69 501.16,197.21 499.09,194.41 498.40,188.27"/>
    </edge>
    <edge id=":2_4" function="internal">
        <lane id=":2_4_0" index="0" speed="5.47" length="9.74" shape="501.60,188.27 501.95,191.37 502.99,192.78 504.73,192.52 507.16,190.58"/>
    </edge>
    <edge id=":2_5" function="internal">
        <lane id=":2_5_0" index="0" speed="13.89" length="17.05" shape="501.60,188.27 501.60,205.33"/>
    </edge>
    <edge id=":205_0" function="internal">
        <lane id=":205_0_0" index="0" speed="3.65" length="4.67" shape="601.60,600.00 600.80,601.20 600.00,601.60 599.20,601.20 598.40,600.00"/>
    </edge>
    <edge id=":22_0" function="internal">
        <lane id=":22_0_0" index="0" speed="13.89" length="14.40" shape="307.20,401.60 292.80,401.60"/>
    </edge>
    <edge id=":22_1" function="internal">
        <lane id=":22_1_0" index="0" speed="8.00" length="4.07" shape="307.20,401.60 303.35,401.05 303.20,400.96"/>
    </edge>
    <edge id=":22_6" function="internal">
        <lane id=":22_6_0" index="0" speed="8.00" length="10.13" shape="303.20,400.96 300.60,399.40 298.95,396.65 298.40,392.80"/>
    </edge>
    <edge id=":22_2" function="internal">
        <lane id=":22_2_0" index="0" speed="6.51" length="9.03" shape="301.60,392.80 301.95,395.25 303.00,397.00 304.75,398.05 307.20,398.40"/>
    </edge>
    <edge id=":22_3" function="internal">
        <lane id=":22_3_0" index="0" speed="8.00" length="14.19" shape="301.60,392.80 301.05,396.65 299.40,399.40 296.65,401.05 292.80,401.60"/>
    </edge>
    <edge id=":22_4" function="internal">
        <lane id=":22_4_0" index="0" speed="6.51" length="9.03" shape="292.80,398.40 295.25,398.05 297.00,397.00 298.05,395.25 298.40,392.80"/>
    </edge>
    <edge id=":22_5" function="internal">
        <lane id=":22_5_0" index="0" speed="13.89" length="14.40" shape="292.80,398.40 307.20,398.40"/>
    </edge>
    <edge id=":228_0" function="internal">
        <lane id=":228_0_0" index="0" speed="3.65" length="4.67" shape="201.60,1000.00 200.80,1001.20 200.00,1001.60 199.20,1001.20 198.40,1000.00"/>
    </edge>
    <edge id=":26_0" function="internal">
        <lane id=":26_0_0" index="0" speed="6.51" length="9.03" shape="498.40,107.20 498.05,104.75 497.00,103.00 495.25,101.95 492.80,101.60"/>
    </edge>
    <edge id=":26_1" function="internal">
        <lane id=":26_1_0" index="0" speed="13.89" length="14.40" shape="498.40,107.20 498.40,92.80"/>
    </edge>
    <edge id=":26_2" function="internal">
        <lane id=":26_2_0" index="0" speed="8.00" length="4.07" shape="498.40,107.20 498.95,103.35 499.04,103.20"/>
    </edge>
    <edge id=":26_12" function="internal">
        <lane id=":26_12_0" index="0" speed="8.00" length="10.13" shape="499.04,103.20 500.60,100.60 503.35,98.95 507.20,98.40"/>
    </edge>
    <edge id=":26_3" function="internal">
        <lane id=":26_3_0" index="0" speed="6.51" length="9.03" shape="507.20,101.60 504.75,101.95 503.00,103.00 501.95,104.75 501.60,107.20"/>
    </edge>
    <edge id=":26_4" function="internal">
        <lane id=":26_4_0" index="0" speed="13.89" length="14.40" shape="507.20,101.60 492.80,101.60"/>
    </edge>
    <edge id=":26_5" function="internal">
        <lane id=":26_5_0" index="0" speed="8.00" length="14.19" shape="507.20,101.60 503.35,101.05 500.60,99.40 498.95,96.65 498.40,92.80"/>
    </edge>
    <edge id=":26_6" function="internal">
        <lane id=":26_6_0" index="0" speed="6.51" length="9.03" shape="501.60,92.80 501.95,95.25 503.00,97.00 504.75,98.05 507.20,98.40"/>
    </edge>
    <edge id=":26_7" function="internal">
        <lane id=":26_7_0" index="0" speed="13.89" length="14.40" shape="501.60,92.80 501.60,107.20"/>
    </edge>
    <edge id=":26_8" function="internal">
        <lane id=":26_8_0" index="0" speed="8.00" length="4.07" shape="501.60,92.80 501.05,96.65 500.96,96.80"/>
    </edge>
    <edge id=":26_13" function="internal">
        <lane id=":26_13_0" index="0" speed="8.00" length="10.13" shape="500.96,96.80 499.40,99.40 496.65,101.05 492.80,101.60"/>
    </edge>
    <edge id=":26_9" function="internal">
        <lane id=":26_9_0" index="0" speed="6.51" length="9.03" shape="492.80,98.40 495.25,98.05 497.00,97.00 498.05,95.25 498.40,92.80"/>
    </edge>
    <edge id=":26_10" function="internal">
        <lane id=":26_10_0" index="0" speed="13.89" length="14.40" shape="492.80,98.40 507.20,98.40"/>
    </edge>
    <edge id=":26_11" function="internal">
        <lane id=":26_11_0" index="0" speed="8.00" length="14.19" shape="492.80,98.40 496.65,98.95 499.40,100.60 501.05,103.35 501.60,107.20"/>
    </edge>
    <edge id=":30_0" function="internal">
        <lane id=":30_0_0" index="0" speed="6.51" length="9.03" shape="198.40,407.20 198.05,404.75 197.00,403.00 195.25,401.95 192.80,401.60"/>
    </edge>
    <edge id=":30_1" function="internal">
        <lane id=":30_1_0" index="0" speed="13.89" length="19.09" shape="198.40,407.20 199.27,402.99 201.45,398.34 204.30,393.96 207.16,390.58"/>
    </edge>
    <edge id=":30_2" function="internal">
        <lane id=":30_2_0" index="0" speed="8.71" length="17.02" shape="198.40,407.20 199.73,403.97 203.07,401.15 207.40,399.16 211.73,398.40"/>
    </edge>
    <edge id=":30_3" function="internal">
        <lane id=":30_3_0" index="0" speed="7.65" length="12.89" shape="211.73,401.60 207.30,401.95 204.13,403.00 202.23,404.75 201.60,407.20"/>
    </edge>
    <edge id=":30_4" function="internal">
        <lane id=":30_4_0" index="0" speed="13.89" length="18.93" shape="211.73,401.60 192.80,401.60"/>
    </edge>
    <edge id=":30_5" function="internal">
        <lane id=":30_5_0" index="0" speed="7.42" length="6.00" shape="211.73,401.60 205.76,400.93"/>
    </edge>
    <edge id=":30_12" function="internal">
        <lane id=":30_12_0" index="0" speed="7.42" length="13.30" shape="205.76,400.93 205.59,400.91 202.79,398.84 203.31,395.40 207.16,390.58"/>
    </edge>
    <edge id=":30_6" function="internal">
        <lane id=":30_6_0" index="0" speed="5.47" length="9.74" shape="209.42,392.84 207.48,395.27 207.22,397.01 208.63,398.05 211.73,398.40"/>
    </edge>
    <edge id=":30_7" function="internal">
        <lane id=":30_7_0" index="0" speed="13.42" length="16.74" shape="209.42,392.84 206.00,396.67 203.56,400.34 202.09,403.85 201.60,407.20"/>
    </edge>
    <edge id=":30_8" function="internal">
        <lane id=":30_8_0" index="0" speed="13.89" length="19.06" shape="209.42,392.84 205.53,396.06 200.94,398.86 196.44,400.85 192.80,401.60"/>
    </edge>
    <edge id=":30_9" function="internal">
        <lane id=":30_9_0" index="0" speed="13.42" length="16.74" shape="192.80,398.40 196.15,397.91 199.66,396.44 203.33,394.00 207.16,390.58"/>
    </edge>
    <edge id=":30_10" function="internal">
        <lane id=":30_10_0" index="0" speed="13.89" length="18.93" shape="192.80,398.40 211.73,398.40"/>
    </edge>
    <edge id=":30_11" function="internal">
        <lane id=":30_11_0" index="0" speed="8.00" length="4.07" shape="192.80,398.40 196.65,398.95 196.80,399.04"/>
    </edge>
    <edge id=":30_13" function="internal">
        <lane id=":30_13_0" index="0" speed="8.00" length="10.13" shape="196.80,399.04 199.40,400.60 201.05,403.35 201.60,407.20"/>
    </edge>
    <edge id=":333_0" function="internal">
        <lane id=":333_0_0" index="0" speed="3.65" length="4.67" shape="701.60,200.00 700.80,201.20 700.00,201.60 699.20,201.20 698.40,200.00"/>
    </edge>
    <edge id=":337_0" function="internal">
        <lane id=":337_0_0" index="0" speed="3.65" length="4.67" shape="900.00,-1.60 901.20,-0.80 901.60,0.00 901.20,0.80 900.00,1.60"/>
    </edge>